@<TRIPOS>MOLECULE
SMILES/train_Wang_cano_0.smi:1
54   58    1
SMALL
USER_CHARGES


@<TRIPOS>ATOM
      1 C1         -0.8475    1.0634    0.0662 C.3       1 UNK         0.1100 
      2 O2         -0.0796   -0.1129   -0.1203 O.3       1 UNK        -0.4000 
      3 C3          1.2700    0.0790    0.1417 C.3       1 UNK         0.4150 
      4 O4          1.9210    0.8503   -0.8671 O.3       1 UNK        -0.4000 
      5 C5          2.7477    0.0365   -1.7365 C.3       1 UNK         0.3150 
      6 C6          2.1099   -0.0338   -3.1342 C.3       1 UNK        -0.1200 
      7 C7          2.1553    1.3310   -3.8419 C.3       1 UNK         0.1500 
      8 C8          3.6241    3.1012   -4.7207 C.3       1 UNK         0.2650 
      9 C9          5.0518    3.4426   -5.1102 C.ar      1 UNK        -0.1150 
     10 C10         5.6962    2.7156   -6.1334 C.ar      1 UNK        -0.1150 
     11 C11         7.0216    3.0259   -6.4948 C.ar      1 UNK        -0.1150 
     12 C12         7.7070    4.0649   -5.8361 C.ar      1 UNK        -0.1150 
     13 C13         7.0660    4.7948   -4.8165 C.ar      1 UNK        -0.1150 
     14 C14         5.7405    4.4855   -4.4544 C.ar      1 UNK        -0.1150 
     15 C15         4.1522    1.9867   -2.5647 C.3       1 UNK         0.1500 
     16 C16         4.1593    0.6393   -1.8229 C.3       1 UNK        -0.1200 
     17 C17         2.7392   -1.2742   -1.0569 C.ar      1 UNK        -0.2850 
     18 C18         3.2584   -2.5913   -1.0858 C.ar      1 UNK         0.2660 
     19 N19         2.7410   -3.3066   -0.0855 N.2       1 UNK        -0.5310 
     20 N20         1.8930   -2.4773    0.5978 N.pl3     1 UNK         0.1189 
     21 C21         1.1480   -2.9423    1.7149 C.ar      1 UNK         0.0731 
     22 C22         0.9135   -4.3273    1.8905 C.ar      1 UNK        -0.1150 
     23 C23         0.1742   -4.7941    2.9947 C.ar      1 UNK        -0.1150 
     24 C24        -0.3378   -3.8833    3.9369 C.ar      1 UNK        -0.1150 
     25 C25        -0.1082   -2.5048    3.7738 C.ar      1 UNK        -0.1150 
     26 C26         0.6303   -2.0369    2.6698 C.ar      1 UNK        -0.1150 
     27 C27         1.9214   -1.2392   -0.0159 C.ar      1 UNK         0.0560 
     28 H28        -1.8940    0.8552   -0.1555 H         1 UNK         0.0300 
     29 H29        -0.7862    1.4142    1.0972 H         1 UNK         0.0300 
     30 H30        -0.5167    1.8635   -0.5972 H         1 UNK         0.0300 
     31 H31         1.4551    0.5087    1.1264 H         1 UNK         0.1000 
     32 H32         2.6392   -0.7696   -3.7414 H         1 UNK         0.0600 
     33 H33         1.0779   -0.3793   -3.0609 H         1 UNK         0.0600 
     34 H34         1.7490    1.2241   -4.8484 H         1 UNK         0.0600 
     35 H35         1.5196    2.0479   -3.3197 H         1 UNK         0.0600 
     36 H36         3.0503    2.9837   -5.6412 H         1 UNK         0.0600 
     37 H37         3.1690    3.9296   -4.1754 H         1 UNK         0.0600 
     38 H38         5.1770    1.9168   -6.6425 H         1 UNK         0.1150 
     39 H39         7.5126    2.4670   -7.2779 H         1 UNK         0.1150 
     40 H40         8.7234    4.3027   -6.1137 H         1 UNK         0.1150 
     41 H41         7.5916    5.5925   -4.3123 H         1 UNK         0.1150 
     42 H42         5.2563    5.0495   -3.6704 H         1 UNK         0.1150 
     43 H43         5.1788    2.3438   -2.6453 H         1 UNK         0.0600 
     44 H44         3.6039    2.7325   -1.9870 H         1 UNK         0.0600 
     45 H45         4.5765    0.7679   -0.8233 H         1 UNK         0.0600 
     46 H46         4.8211   -0.0527   -2.3460 H         1 UNK         0.0600 
     47 H47         3.9573   -3.0442   -1.7734 H         1 UNK         0.0720 
     48 H48         1.2921   -5.0468    1.1792 H         1 UNK         0.1150 
     49 H49        -0.0004   -5.8528    3.1178 H         1 UNK         0.1150 
     50 H50        -0.9037   -4.2412    4.7844 H         1 UNK         0.1150 
     51 H51        -0.4969   -1.8044    4.4983 H         1 UNK         0.1150 
     52 H52         0.7981   -0.9767    2.5814 H         1 UNK         0.1150 
     53 N53         3.5425    1.8571   -3.9152 N.4       1 UNK        -0.1000 
     54 H54         4.0829    1.1642   -4.4133 H         1 UNK         0.2900 
@<TRIPOS>BOND
     1    1    2 1    
     2    1   28 1    
     3    1   29 1    
     4    1   30 1    
     5    2    3 1    
     6    3   27 1    
     7    3    4 1    
     8    3   31 1    
     9    4    5 1    
    10    5   16 1    
    11    5    6 1    
    12    5   17 1    
    13    6    7 1    
    14    6   32 1    
    15    6   33 1    
    16    7   34 1    
    17    7   35 1    
    18    7   53 1    
    19    8    9 1    
    20    8   36 1    
    21    8   37 1    
    22    8   53 1    
    23    9   14 ar   
    24    9   10 ar   
    25   10   11 ar   
    26   10   38 1    
    27   11   12 ar   
    28   11   39 1    
    29   12   13 ar   
    30   12   40 1    
    31   13   14 ar   
    32   13   41 1    
    33   14   42 1    
    34   15   16 1    
    35   15   43 1    
    36   15   44 1    
    37   15   53 1    
    38   16   45 1    
    39   16   46 1    
    40   17   27 ar   
    41   17   18 ar   
    42   18   19 ar   
    43   18   47 1    
    44   19   20 ar   
    45   20   21 1    
    46   20   27 ar   
    47   21   26 ar   
    48   21   22 ar   
    49   22   23 ar   
    50   22   48 1    
    51   23   24 ar   
    52   23   49 1    
    53   24   25 ar   
    54   24   50 1    
    55   25   26 ar   
    56   25   51 1    
    57   26   52 1    
    58   53   54 1    
@<TRIPOS>SUBSTRUCTURE
     1 UNK         1 GROUP             0       ****    0 ROOT    
